/*--------------------------------*- C++ -*----------------------------------*\
| =========                 |                                                 |
| \\      /  F ield         | OpenFOAM: The Open Source CFD Toolbox           |
|  \\    /   O peration     | Version:  5                                     |
|   \\  /    A nd           | Web:      www.OpenFOAM.org                      |
|    \\/     M anipulation  |                                                 |
\*---------------------------------------------------------------------------*/
FoamFile
{
    version     2.0;
    format      ascii;
    class       dictionary;
    location    "system";
    object      fvSolution;
}
// * * * * * * * * * * * * * * * * * * * * * * * * * * * * * * * * * * * * * //

solvers
{
    c
    {
        solver          PBiCGStab;
        preconditioner  DILU;
        tolerance       1e-06;
        relTol          0;
    }
    
    p
    {
        solver          PBiCGStab;
        preconditioner  DIC;
        tolerance       1e-06;
        relTol          0;
    }
	U
	{
		solver 			smoothSolver;
		smoother 		symGaussSeidel;
		tolerance 		1e-05;
		relTol 			0;
	}
}

SIMPLE
{
    nNonOrthogonalCorrectors 2;
}


// ************************************************************************* //
